Version 4
SHEET 1 2164 1188
WIRE -736 -608 -816 -608
WIRE -816 -512 -816 -608
WIRE -816 -384 -816 -432
WIRE -160 16 -448 16
WIRE -16 16 -96 16
WIRE 128 16 -16 16
WIRE 1088 16 816 16
WIRE 1232 16 1152 16
WIRE 1328 16 1232 16
WIRE 1360 16 1328 16
WIRE 1376 16 1360 16
WIRE 1456 16 1424 16
WIRE 1536 16 1456 16
WIRE -16 128 -16 16
WIRE 1232 128 1232 16
WIRE 1328 128 1328 16
WIRE 1456 128 1456 16
WIRE 1536 128 1536 16
WIRE 1536 192 1536 176
WIRE -16 336 -16 192
WIRE 144 336 -16 336
WIRE 1232 336 1232 192
WIRE 1232 336 1088 336
WIRE 1248 336 1232 336
WIRE 1312 336 1296 336
WIRE 1328 336 1328 192
WIRE 1328 336 1312 336
WIRE 1456 336 1456 192
WIRE 1456 336 1328 336
WIRE 1536 336 1536 192
WIRE 1536 336 1520 336
WIRE 1648 336 1536 336
WIRE 144 352 144 336
WIRE 1088 368 1088 336
WIRE -96 720 -448 720
WIRE -48 720 -96 720
WIRE 32 720 16 720
WIRE 128 720 32 720
WIRE 928 768 816 768
WIRE 1040 768 992 768
WIRE 1120 768 1040 768
WIRE 1168 768 1120 768
WIRE 1312 768 1232 768
WIRE 1360 768 1312 768
WIRE 1392 768 1360 768
WIRE 1536 768 1456 768
WIRE 1568 768 1536 768
WIRE 1616 768 1568 768
WIRE 1744 768 1680 768
WIRE 1792 768 1744 768
WIRE -448 816 -448 720
WIRE -96 832 -96 720
WIRE 32 848 32 720
WIRE 976 864 912 864
WIRE 1040 864 1040 768
WIRE 1120 864 1120 768
WIRE 1312 864 1312 768
WIRE 1360 864 1360 768
WIRE 1536 864 1536 768
WIRE 1568 864 1568 768
WIRE 1744 864 1744 768
WIRE 1792 864 1792 768
WIRE 1920 864 1856 864
WIRE 912 944 912 864
WIRE 912 944 816 944
WIRE 1056 944 912 944
WIRE 1184 944 1184 864
WIRE 1184 944 1120 944
WIRE 1248 944 1248 864
WIRE 1248 944 1184 944
WIRE 1280 944 1248 944
WIRE 1424 944 1424 864
WIRE 1424 944 1344 944
WIRE 1472 944 1472 864
WIRE 1472 944 1424 944
WIRE 1488 944 1472 944
WIRE 1632 944 1632 864
WIRE 1632 944 1552 944
WIRE 1680 944 1680 864
WIRE 1680 944 1632 944
WIRE 1728 944 1680 944
WIRE 1920 944 1920 864
WIRE 1920 944 1792 944
WIRE 1984 944 1920 944
WIRE -448 976 -448 896
WIRE 32 976 32 912
WIRE 32 976 -448 976
WIRE 816 1008 816 944
WIRE 32 1040 32 976
WIRE -96 1104 -96 896
WIRE 32 1104 -96 1104
WIRE 32 1136 32 1104
FLAG 128 16 Vo
FLAG 128 720 Vo1
FLAG 32 1136 0
FLAG 1088 368 0
FLAG 1648 336 o
FLAG -816 -384 0
FLAG -736 -608 V1
FLAG -448 16 V1
FLAG 144 352 0
FLAG 816 16 V1
FLAG 816 1008 0
FLAG 1984 944 output
FLAG 816 768 V1
SYMBOL cap -96 0 R90
WINDOW 0 0 32 VBottom 2
WINDOW 3 32 32 VTop 2
SYMATTR InstName C1
SYMATTR Value 300n
SYMBOL diode 0 192 R180
WINDOW 0 24 64 Left 2
WINDOW 3 24 0 Left 2
SYMATTR InstName D1
SYMBOL diode -80 896 R180
WINDOW 0 24 64 Left 2
WINDOW 3 24 0 Left 2
SYMATTR InstName D2
SYMBOL cap 16 1040 R0
SYMATTR InstName C2
SYMATTR Value 900n
SYMBOL cap 16 848 R0
SYMATTR InstName C3
SYMATTR Value 900n
SYMBOL diode -48 736 R270
WINDOW 0 32 32 VTop 2
WINDOW 3 0 32 VBottom 2
SYMATTR InstName D3
SYMBOL cap 1152 0 R90
WINDOW 0 0 32 VBottom 2
WINDOW 3 32 32 VTop 2
SYMATTR InstName C4
SYMATTR Value 300n
SYMBOL diode 1248 192 R180
WINDOW 0 24 64 Left 2
WINDOW 3 24 0 Left 2
SYMATTR InstName D4
SYMBOL cap 1312 320 R90
WINDOW 0 0 32 VBottom 2
WINDOW 3 32 32 VTop 2
SYMATTR InstName C5
SYMATTR Value 300n
SYMBOL diode 1312 128 R0
SYMATTR InstName D5
SYMBOL diode 1472 192 R180
WINDOW 0 24 64 Left 2
WINDOW 3 24 0 Left 2
SYMATTR InstName D6
SYMBOL diode 1520 128 R0
SYMATTR InstName D7
SYMBOL cap 1424 0 R90
WINDOW 0 0 32 VBottom 2
WINDOW 3 32 32 VTop 2
SYMATTR InstName C6
SYMATTR Value 300n
SYMBOL cap 1520 320 R90
WINDOW 0 0 32 VBottom 2
WINDOW 3 32 32 VTop 2
SYMATTR InstName C7
SYMATTR Value 300n
SYMBOL voltage -816 -528 R0
WINDOW 123 0 0 Left 0
WINDOW 39 0 0 Left 0
SYMATTR InstName Vin
SYMATTR Value SINE(0 10 50)
SYMBOL voltage -448 800 R0
WINDOW 123 0 0 Left 0
WINDOW 39 0 0 Left 0
SYMATTR InstName Vin1
SYMATTR Value SINE(0 10 50)
SYMBOL cap 992 752 R90
WINDOW 0 0 32 VBottom 2
WINDOW 3 32 32 VTop 2
SYMATTR InstName C8
SYMATTR Value 1000p
SYMBOL cap 1120 928 R90
WINDOW 0 0 32 VBottom 2
WINDOW 3 32 32 VTop 2
SYMATTR InstName C9
SYMATTR Value 1000p
SYMBOL cap 1232 752 R90
WINDOW 0 0 32 VBottom 2
WINDOW 3 32 32 VTop 2
SYMATTR InstName C10
SYMATTR Value 1000p
SYMBOL cap 1344 928 R90
WINDOW 0 0 32 VBottom 2
WINDOW 3 32 32 VTop 2
SYMATTR InstName C11
SYMATTR Value 1000p
SYMBOL cap 1456 752 R90
WINDOW 0 0 32 VBottom 2
WINDOW 3 32 32 VTop 2
SYMATTR InstName C12
SYMATTR Value 1000p
SYMBOL cap 1552 928 R90
WINDOW 0 0 32 VBottom 2
WINDOW 3 32 32 VTop 2
SYMATTR InstName C13
SYMATTR Value 1000p
SYMBOL cap 1680 752 R90
WINDOW 0 0 32 VBottom 2
WINDOW 3 32 32 VTop 2
SYMATTR InstName C14
SYMATTR Value 1000p
SYMBOL cap 1792 928 R90
WINDOW 0 0 32 VBottom 2
WINDOW 3 32 32 VTop 2
SYMATTR InstName C15
SYMATTR Value 1000p
SYMBOL diode 976 880 R270
WINDOW 0 32 32 VTop 2
WINDOW 3 0 32 VBottom 2
SYMATTR InstName D8
SYMBOL diode 1120 880 R270
WINDOW 0 32 32 VTop 2
WINDOW 3 0 32 VBottom 2
SYMATTR InstName D9
SYMBOL diode 1248 880 R270
WINDOW 0 32 32 VTop 2
WINDOW 3 0 32 VBottom 2
SYMATTR InstName D10
SYMBOL diode 1360 880 R270
WINDOW 0 32 32 VTop 2
WINDOW 3 0 32 VBottom 2
SYMATTR InstName D11
SYMBOL diode 1472 880 R270
WINDOW 0 32 32 VTop 2
WINDOW 3 0 32 VBottom 2
SYMATTR InstName D12
SYMBOL diode 1568 880 R270
WINDOW 0 32 32 VTop 2
WINDOW 3 0 32 VBottom 2
SYMATTR InstName D13
SYMBOL diode 1680 880 R270
WINDOW 0 32 32 VTop 2
WINDOW 3 0 32 VBottom 2
SYMATTR InstName D14
SYMBOL diode 1792 880 R270
WINDOW 0 32 32 VTop 2
WINDOW 3 0 32 VBottom 2
SYMATTR InstName D15
TEXT 6 -600 Left 2 !.tran 0 5 0 100
TEXT -16 -656 Left 2 ;Sim settings
TEXT 216 64 Left 2 ;Half wave voltage doubler
TEXT 216 768 Left 2 ;full wave voltage doubler
TEXT 800 424 Left 2 ;4x multiplier
TEXT 1528 672 Left 2 ;Cockcroft-Walton Multiplier
TEXT -488 -624 Left 2 ;Voltage settings
RECTANGLE Normal 800 -352 -48 -688 2
RECTANGLE Normal 560 480 -512 -96 2
RECTANGLE Normal 560 1184 -512 608 2
RECTANGLE Normal 1808 480 736 -96 2
RECTANGLE Normal -240 -288 -912 -656 2
RECTANGLE Normal 2112 1184 656 608 2
