Version 4
SHEET 1 2012 680
WIRE 1216 -96 1152 -96
WIRE 1440 -96 1296 -96
WIRE 1616 -96 1440 -96
WIRE 1760 -96 1680 -96
WIRE 1152 -48 1152 -96
WIRE 1760 -48 1760 -96
WIRE 240 128 240 96
WIRE 496 128 496 80
WIRE 608 128 608 80
WIRE 720 128 720 80
WIRE 208 144 112 96
WIRE 1440 144 1440 -96
WIRE 1440 144 1296 144
WIRE 1584 144 1440 144
WIRE 320 160 272 160
WIRE 368 160 320 160
WIRE 48 176 0 176
WIRE 160 176 128 176
WIRE 208 176 160 176
WIRE 240 208 240 192
WIRE 1216 240 1216 144
WIRE 496 256 496 208
WIRE 608 256 608 208
WIRE 720 256 720 208
WIRE 1376 256 1264 256
WIRE 160 272 160 176
WIRE 192 272 160 272
WIRE 320 272 320 160
WIRE 320 272 272 272
WIRE 1264 416 1264 304
FLAG 368 160 vout
FLAG 112 96 vin
FLAG 0 176 vref
FLAG 240 208 0
FLAG 240 96 vcc
FLAG 496 256 0
FLAG 608 256 0
FLAG 720 256 0
FLAG 496 80 vcc
FLAG 608 80 vref
FLAG 720 80 vin
FLAG 1152 -48 0
FLAG 1760 -48 0
FLAG 1264 416 0
FLAG 1216 320 0
FLAG 1376 256 vout
FLAG 1584 144 tp
SYMBOL OpAmps\\UniversalOpAmp2 240 160 R0
SYMATTR InstName U1
SYMBOL res 144 160 R90
WINDOW 0 0 56 VBottom 2
WINDOW 3 32 56 VTop 2
SYMATTR InstName R1
SYMATTR Value 15k
SYMBOL res 288 256 R90
WINDOW 0 0 56 VBottom 2
WINDOW 3 32 56 VTop 2
SYMATTR InstName R2
SYMATTR Value 10k
SYMBOL voltage 496 112 R0
WINDOW 123 0 0 Left 0
WINDOW 39 0 0 Left 0
SYMATTR InstName V1
SYMATTR Value 4.8
SYMBOL voltage 608 112 R0
WINDOW 123 0 0 Left 0
WINDOW 39 0 0 Left 0
SYMATTR InstName V2
SYMATTR Value 2
SYMBOL voltage 720 112 R0
WINDOW 123 0 0 Left 0
WINDOW 39 0 0 Left 0
SYMATTR InstName V3
SYMATTR Value SINE(1 3 1)
SYMBOL current 1216 -96 R270
WINDOW 0 32 40 VTop 2
WINDOW 3 -32 40 VBottom 2
WINDOW 123 0 0 Left 0
WINDOW 39 0 0 Left 0
SYMATTR InstName I1
SYMATTR Value 0.1
SYMBOL current 1296 144 R90
WINDOW 0 -32 40 VBottom 2
WINDOW 3 32 40 VTop 2
WINDOW 123 0 0 Left 0
WINDOW 39 0 0 Left 0
SYMATTR InstName I2
SYMATTR Value 0.1
SYMBOL cap 1680 -112 R90
WINDOW 0 0 32 VBottom 2
WINDOW 3 32 32 VTop 2
SYMATTR InstName C1
SYMATTR Value 560n
SYMBOL sw 1216 336 R180
SYMATTR InstName S1
SYMATTR Value MYSW
TEXT -56 328 Left 2 !.tran 0 100 0 0.01
TEXT -88 -128 Left 2 ;Inverting schmitt trigger design
TEXT -40 -88 Left 2 ;hysteresis at 3.5V and 0.5V
TEXT 1392 336 Left 2 !.model MYSW SW(Ron=1 Roff=1Meg Vt=.5 Vh=-.75)
RECTANGLE Normal 896 368 -128 -176 2
