Version 4.1
SHEET 1 900 680
WIRE 240 128 240 96
WIRE 496 128 496 80
WIRE 608 128 608 80
WIRE 720 128 720 80
WIRE 208 144 160 144
WIRE 320 160 272 160
WIRE 368 160 320 160
WIRE 48 176 0 176
WIRE 160 176 128 176
WIRE 208 176 160 176
WIRE 240 208 240 192
WIRE 496 256 496 208
WIRE 608 256 608 208
WIRE 720 256 720 208
WIRE 160 272 160 176
WIRE 192 272 160 272
WIRE 320 272 320 160
WIRE 320 272 272 272
FLAG 368 160 vout
FLAG 160 144 vin
FLAG 0 176 vref
FLAG 240 208 0
FLAG 240 96 vcc
FLAG 496 256 0
FLAG 608 256 0
FLAG 720 256 0
FLAG 496 80 vcc
FLAG 608 80 vref
FLAG 720 80 vin
SYMBOL OpAmps\\UniversalOpAmp2 240 160 R0
SYMATTR InstName U1
SYMBOL res 144 160 R90
WINDOW 0 0 56 VBottom 2
WINDOW 3 32 56 VTop 2
SYMATTR InstName R1
SYMATTR Value 5.6k
SYMBOL res 288 256 R90
WINDOW 0 0 56 VBottom 2
WINDOW 3 32 56 VTop 2
SYMATTR InstName R2
SYMATTR Value 3.3k
SYMBOL voltage 496 112 R0
WINDOW 123 0 0 Left 0
WINDOW 39 0 0 Left 0
SYMATTR InstName V1
SYMATTR Value 4.8
SYMBOL voltage 608 112 R0
WINDOW 123 0 0 Left 0
WINDOW 39 0 0 Left 0
SYMATTR InstName V2
SYMATTR Value 1.3
SYMBOL voltage 720 112 R0
WINDOW 123 0 0 Left 0
WINDOW 39 0 0 Left 0
SYMATTR InstName V3
SYMATTR Value SINE(2 4 1)
TEXT -56 328 Left 2 !.tran 2
TEXT -88 -128 Left 2 ;Inverting schmitt trigger design
TEXT -40 -88 Left 2 ;hysteresis at 3.5V and 0.5V
RECTANGLE Normal 896 368 -128 -176 2
