Version 4.1
SHEET 1 2012 680
WIRE 352 16 304 16
WIRE 160 32 112 32
WIRE 224 32 224 16
WIRE 224 32 160 32
WIRE 288 112 256 112
WIRE 192 128 144 128
WIRE 496 128 496 80
WIRE 608 128 608 80
WIRE 720 128 720 80
WIRE 288 144 256 144
WIRE 160 160 160 32
WIRE 192 160 160 160
WIRE 352 160 352 16
WIRE 352 160 320 160
WIRE 368 160 352 160
WIRE 48 176 0 176
WIRE 144 176 144 128
WIRE 144 176 128 176
WIRE 160 176 144 176
WIRE 320 176 320 160
WIRE 320 176 256 176
WIRE 496 256 496 208
WIRE 608 256 608 208
WIRE 720 256 720 208
WIRE 160 272 160 176
WIRE 192 272 160 272
WIRE 320 272 320 176
WIRE 320 272 272 272
WIRE 160 416 160 272
WIRE 160 544 160 496
FLAG 368 160 vout
FLAG 0 176 vref
FLAG 496 256 0
FLAG 608 256 0
FLAG 720 256 0
FLAG 608 80 vref
FLAG 720 80 vin
FLAG 496 80 vcc
FLAG 48 32 0
FLAG 160 544 0
FLAG 288 112 vcc
FLAG 288 144 0
SYMBOL res 144 160 R90
WINDOW 0 0 56 VBottom 2
WINDOW 3 32 56 VTop 2
SYMATTR InstName R1
SYMATTR Value 15k
SYMBOL res 288 256 R90
WINDOW 0 0 56 VBottom 2
WINDOW 3 32 56 VTop 2
SYMATTR InstName R2
SYMATTR Value 15k
SYMBOL voltage 496 112 R0
WINDOW 123 0 0 Left 0
WINDOW 39 0 0 Left 0
SYMATTR InstName V1
SYMATTR Value 5
SYMBOL voltage 608 112 R0
WINDOW 123 0 0 Left 0
WINDOW 39 0 0 Left 0
SYMATTR InstName V2
SYMATTR Value 5
SYMBOL voltage 720 112 R0
WINDOW 123 0 0 Left 0
WINDOW 39 0 0 Left 0
SYMATTR InstName V3
SYMATTR Value SINE(1 3 1)
SYMBOL cap 112 16 R90
WINDOW 0 0 32 VBottom 2
WINDOW 3 32 32 VTop 2
SYMATTR InstName C1
SYMATTR Value 12p
SYMBOL res 320 0 R90
WINDOW 0 0 56 VBottom 2
WINDOW 3 32 56 VTop 2
SYMATTR InstName R5
SYMATTR Value 1Meg
SYMBOL res 144 400 R0
SYMATTR InstName R4
SYMATTR Value 15k
SYMBOL TL082 224 144 R0
SYMATTR InstName U1
TEXT -56 328 Left 2 !.tran 0 500u 0 0.01
TEXT -88 -128 Left 2 ;Inverting schmitt trigger design
TEXT -40 -88 Left 2 ;hysteresis at 3.5V and 0.5V
RECTANGLE Normal 896 368 -128 -176 2
